#PLEASE NOTE: THIS DATABASE HAS BEEN CONVERTED FROM THE FORMAT FOR TOUGHREACT TO A SUITABLE FORMAT FOR PHREEQC. THE FOLLOWING NOTES ARE COPIED FROM THE TOUGHREACT DATABASE
#NS 11/2010   soltherm.h06 database for solveq/chiller, converted with dbconv2 v3.031

#For the source of this database please cite: 
#Reed M.H. and Palandri J., 2006. SOLTHERM.H06, a database of equilibrium constants for minerals and aqueous species.
#  Available from the authors, University of Oregon, Eugene, Oregon.
#Reed M.H., 1998. Calculation of simultaneous chemical equilibria in aqueous-mineral-gas systems and
#  its application to modeling hydrothermal processes. In: Techniques in Hydrothermal Ore Deposits Geology,
#  Reviews in Economic Geology, Volume 10. Richards J, Larson P (eds), 109?124.


#!!!! Warning, bad regressions for the following entries (likely phase change or poor logK data)
#see checkdat.out output from regression
#UCl4    
#UCl4    
#UF4     
#UF4     
#U(HPO4)2
#U(HPO4)2
#:H2PO4)2
#Pd4S 
#staur-Mg
#staur-Mn


# File format and data suitable for TOUGHREACT V2.042+ (YMP)
# May need component switching to avoid overdefinitions 

#*** Note: the last temperature point below is set to 350 to allow computation of log(K)'s up to 350 C, however,
#the last log(K) value shown on the species, mineral, and gas records are for 300C, not 350 C !!

#Also note: the code does not read individual log(K) values, but reads the regression coefficients below them, unless
#there are blank.  If these are blank (not recommended), an internal regression is computed using the individual log(K) values,
#in which case the listed log(K) values must be for the temperatures shown below. 

LLNL_AQUEOUS_MODEL_PARAMETERS
 -temperatures 
 0.01 25 50 75 100 125 150 175 200 225 250 275 300

 #debye huckel a (adh) 
 -dh_a 
 0.4907 0.5092 0.5336 0.5639 0.5998 0.6416 0.6898 0.7454 0.8099 0.886 0.9785 1.096 1.2555

 #debye huckel b (bdh) 
 -dh_b 
 0.3245 0.3283 0.3325 0.3371 0.3422 0.3476 0.3533 0.3592 0.3655 0.3721 0.3792 0.3871 0.3965

#bdot and CCO2 values: taken from LLNL, since they were impossible to convert (different equations) 
 -bdot 
 0.0374 0.041 0.043 0.044625 0.046 0.0465 0.047 0.047 0.047 0.0405 0.034 0.017 0

 #cco2   (coefficients for the Drummond (1981) polynomial)
 -co2_coefs
        -1.0312              0.0012806
          255.9                 0.4445
-0.001606

SOLUTION_MASTER_SPECIES 
Ac Ac- 0 59.050 59.050
Ag Ag+ 0 107.870 107.868
Al Al+++ 0 26.982 26.9815
Alkalinity HCO3- 1.0 Ca0.5(CO3)0.5 50.05
As H2AsO3- 0 124.935 74.9216
Au Au+ 0 196.967 196.9665
B H3BO3 0 61.833 10.811
Ba Ba++ 0 137.340 137.327
C HCO3- 1 61.017 12.011
C(4) HCO3- 1 61.017 12.011
Ca Ca++ 0 40.080 40.078
Cl Cl- 0 35.453 35.453
Co Co++ 0 58.933 58.9332
Cu Cu+ 0 63.540 63.546
E e- 0 0 0
F F- 0 18.998 18.9984
Fe Fe++ 0 55.847 55.847
Fe(2) Fe++ 0 55.847 55.847
Fe(3) Fe+++ 0 55.847 55.847
H H+ -1 1.008 1.0079
H(1) H+ -1 1.008 1.0079
Hg Hg++ 0 200.590 401.18
K K+ 0 39.102 39.102
Mal Mal-- 0 102.047 102.047
Mg Mg++ 0 24.312 24.305
Mn Mn++ 0 54.938 54.938
Mo MoO4-- 0 159.938 95.94
N NH4+ 0 18.039 14.0067
Na Na+ 0 22.990 22.9898
Ni Ni++ 0 58.693 58.69
O H2O 0 18.015 15.9994
O(-2) H2O 0 18.015 15.9994
O(0) O2 0 32.000 15.9994
Oxal Oxal-- 0 88.020 88.020
P HPO4-- 2 95.979 30.9738
Pb Pb++ 0 207.190 207.19
Pd Pd++ 0 106.400 106.42
Pt Pt++ 0 195.090 195.090
S HS- 1 33.072 32.066
S SO4-- 0 96.062 32.066
S(-2) HS- 1 33.072 32.066
S(6) SO4-- 0 96.062 32.066
Sb Sb(OH)3 0 172.756 121.76
Se HSe- 0 79.968 78.96
Si SiO2 0 60.085 28.0855
Sn Sn++ 0 118.690 118.71
Sr Sr++ 0 87.620 87.62
Suc Suc-- 0 116.070 116.070
Te HTe- 0 128.608 127.6
Ti Ti(OH)4 0 115.909 47.88
U UO2++ 0 270.030 238.0289
Zn Zn++ 0 65.370 65.37
SOLUTION_SPECIES 
e- = e-
log_k 0
H+ = H+
    -llnl_gamma 4.89
    log_k 0
H2O = H2O
    -llnl_gamma 1
    log_k 0
Cl- = Cl-
    -llnl_gamma 3.72
    log_k 0
SO4-- = SO4--
    -llnl_gamma 4.6467
    log_k 0
HCO3- = HCO3-
    -llnl_gamma 4.01
    log_k 0
HS- = HS-
    -llnl_gamma 3.75
    log_k 0
SiO2 = SiO2
    -llnl_gamma 3
    log_k 0
Al+++ = Al+++
    -llnl_gamma 4.38
    log_k 0
Ca++ = Ca++
    -llnl_gamma 4.3267
    log_k 0
Mg++ = Mg++
    -llnl_gamma 4.1067
    log_k 0
Fe++ = Fe++
    -llnl_gamma 4.16
    log_k 0
K+ = K+
    -llnl_gamma 4.08
    log_k 0
Na+ = Na+
    -llnl_gamma 3.72
    log_k 0
Mn++ = Mn++
    -llnl_gamma 4.2
    log_k 0
Zn++ = Zn++
    -llnl_gamma 4.16
    log_k 0
Cu+ = Cu+
    -llnl_gamma 3.71
    log_k 0
Pb++ = Pb++
    -llnl_gamma 4.4667
    log_k 0
Ag+ = Ag+
    -llnl_gamma 4.01
    log_k 0
Au+ = Au+
    -llnl_gamma 4.12
    log_k 0
Hg++ = Hg++
    -llnl_gamma 4.4
    log_k 0
Sr++ = Sr++
    -llnl_gamma 4.4133
    log_k 0
Ba++ = Ba++
    -llnl_gamma 4.56
    log_k 0
F- = F-
    -llnl_gamma 3.24
    log_k 0
Sb(OH)3 = Sb(OH)3
    -llnl_gamma 4
    log_k 0
H2AsO3- = H2AsO3-
    -llnl_gamma 6.91
    log_k 0
Ni++ = Ni++
    -llnl_gamma 4.1867
    log_k 0
HPO4-- = HPO4--
    -llnl_gamma 4.6533
    log_k 0
Co++ = Co++
    -llnl_gamma 4.16
    log_k 0
MoO4-- = MoO4--
    -llnl_gamma 4.6467
    log_k 0
UO2++ = UO2++
    -llnl_gamma 5.7467
    log_k 0
O2 = O2
    -llnl_gamma 9.99
    log_k 0
NH4+ = NH4+
    -llnl_gamma 4.12
    log_k 0
H3BO3 = H3BO3
    -llnl_gamma 4
    log_k 0
Ti(OH)4 = Ti(OH)4
    -llnl_gamma 4
    log_k 0
Ac- = Ac-
    -llnl_gamma 3.91
    log_k 0
Oxal-- = Oxal--
    -llnl_gamma 4.5467
    log_k 0
Suc-- = Suc--
    -llnl_gamma 4.5467
    log_k 0
Mal-- = Mal--
    -llnl_gamma 4.5467
    log_k 0
Pd++ = Pd++
    -llnl_gamma 4.4133
    log_k 0
Pt++ = Pt++
    -llnl_gamma 4.4133
    log_k 0
HTe- = HTe-
    -llnl_gamma 3.91
    log_k 0
Sn++ = Sn++
    -llnl_gamma 4.4133
    log_k 0
HSe- = HSe-
    -llnl_gamma 3.91
    log_k 0

2H2O =  O2 + 4H+ + 4e-  
	-CO2_llnl_gamma
 	log_k      -85.9951
	-delta_H	559.543	kJ/mol	# Calculated enthalpy of reaction	O2
#	Enthalpy of formation:	-2.9 kcal/mol
        -analytic   38.0229    7.99407E-03   -2.7655e+004  -1.4506e+001  199838.45
#	Range:  0-300
#       Source: LLNL.dat database included with PHREEQC v.3.4

#HS-
1.0000 H+ + 1.0000 SO4-- = HS- + 2.0000 O2
     -llnl_gamma 3.75
    log_k -138.34
    -analytic  2.05755020000000e3 3.018349699999910e-1 -1.6718372000000e5 -7.3351827682435999e2 7.9912302999999998e6
#    weight=33.070
# source:     AR82

#OH-
1.0000 H2O = (OH)- + 1.0000 H+
     -llnl_gamma 3.31
    log_k -13.995
    -analytic  -1.81963699999910e3 -2.5066269000000e-1 1.058574299999910e5 6.485077562250539813e2 -7.0552982999999910e6
#    weight=17.007
# source:     SH98

#H2O2
0.2500 H+ + 1.0000 H2O + 0.2500 SO4-- = (OH)2 + 0.2500 HS-
     -llnl_gamma 3.0
    log_k -51.204
    -analytic  8.918116499999910e2 1.170827399999910e-1 -6.9832273000000e4 -3.1603544534691002e2 3.4053148999999999e6
#    weight=34.015
# source:     SH98

#HClO
1.2500 H+ + 0.2500 SO4-- + 1.0000 Cl- = (OH)Cl + 0.2500 HS-
     -llnl_gamma 3.0
    log_k -42.131
    -analytic  2.818394099999910e3 3.819264899999910e-1 -1.82919519999910e5 -1.0037409595665000e3 1.0918128000000000e7
#    weight=52.460
# source:     SH98

#AlAc2+
1.0000 Al+++ + 2.0000 Ac- = Ac2Al+
     -llnl_gamma 4.12
    log_k 4.6
    -analytic  1.013129099999910e3 1.842168599999910e-1 -5.81798919999910e4 -3.6791793738607998e2 3.7396622999999998e6
#    weight=145.082
# source:     SK93

#CoAc2
1.0000 Co++ + 2.0000 Ac- = Ac2Co
     -llnl_gamma 3.0
    log_k 2.37
    -analytic  3.115147599999910e3 4.417967099999910e-1 -1.87148309999910e5 -1.1142121075989000e3 1.2467828000000000e7
#    weight=177.033
# source:     SK93

#CuAc2
1.1250 H+ + 0.1250 SO4-- + 1.0000 Cu+ + 2.0000 Ac- = Ac2Cu + 0.5000 H2O + 0.1250 HS-
     -llnl_gamma 3.0
    log_k 5.111
    -analytic  3.710478399999910e3 5.11374520000000e-1 -2.23706309999910e5 -1.3245818309249000e3 1.5119695000000000e7
#    weight=181.640
# source:     SK93

#FeAc2
1.0000 Fe++ + 2.0000 Ac- = Ac2Fe
     -llnl_gamma 3.0
    log_k 2.485
    -analytic  3.914960799999910e3 5.438365499999910e-1 -2.3567507000000e5 -1.39804269982699910e3 1.5575655000000000e7
#    weight=173.947
# source:     SH98

#MnAc2
1.0000 Mn++ + 2.0000 Ac- = Ac2Mn
     -llnl_gamma 3.0
    log_k 2.06
    -analytic  3.284443699999910e3 4.627469199999910e-1 -1.9883692000000e5 -1.1730965766990000e3 1.3272949000000000e7
#    weight=173.038
# source:     SK93

#NiAc2
1.0000 Ni++ + 2.0000 Ac- = Ac2Ni
     -llnl_gamma 3.0
    log_k 2.32
    -analytic  3.018812199999910e3 4.293212899999910e-1 -1.8043639000000e5 -1.0806454135526999e3 1.1972879000000000e7
#    weight=176.793
# source:     SK93

#PbAc2
1.0000 Pb++ + 2.0000 Ac- = Ac2Pb
     -llnl_gamma 3.0
    log_k 3.4
    -analytic  3.49533910000000e3 4.851198699999910e-1 -2.11868679999910e5 -1.2458591406200000e3 1.3942337000000000e7
#    weight=325.290
# source:     SK93

#ZnAc2
1.0000 Zn++ + 2.0000 Ac- = Ac2Zn
     -llnl_gamma 3.0
    log_k 3.452
    -analytic  3.911770899999910e3 5.43207160000000e-1 -2.36041059999910e5 -1.39586012546899910e3 1.5590892000000000e7
#    weight=183.470
# source:     SH98

#PbAc3-
1.0000 Pb++ + 3.0000 Ac- = Ac3Pb-
     -llnl_gamma 3.72
    log_k 3.72
    -analytic  6.14199550000000e2 1.099051799999910e-1 -3.03044459999910e4 -2.2634155186410001e2 1.6410833999999999e6
#    weight=384.340
# source:     GK94

#ZnAc3-
1.0000 Zn++ + 3.0000 Ac- = Ac3Zn-
     -llnl_gamma 3.72
    log_k 4.2
    -analytic  3.883178699999910e3 5.46281800000000e-1 -2.37413989999910e5 -1.3854580821822000e3 1.6238746000000000e7
#    weight=242.520
# source:     SH98

#AgAc
1.0000 Ag+ + 1.0000 Ac- = AcAg
     -llnl_gamma 3.0
    log_k 0.73
    -analytic  2.01304500000000e3 2.726131899999910e-1 -1.21510869999910e5 -7.1749111025872003e2 7.9423924000000004e6
#    weight=166.920
# source:     SK93

#AlAc+2
1.0000 Al+++ + 1.0000 Ac- = AcAl++
     -llnl_gamma 4.28
    log_k 2.75
    -analytic  2.613460099999910e2 6.023901999999910e-2 -1.46919869999910e4 -9.6296397358592998e1 9.7768997999999998e5
#    weight=86.031
# source:     SK93

#CoAc+
1.0000 Co++ + 1.0000 Ac- = AcCo+
     -llnl_gamma 4.12
    log_k 1.46
    -analytic  1.313157799999910e3 1.907843499999910e-1 -7.79628519999910e4 -4.7079760052199998e2 5.1442695999999996e6
#    weight=117.983
# source:     SK93

#CuAc+
1.1250 H+ + 0.1250 SO4-- + 1.0000 Cu+ + 1.0000 Ac- = AcCu+ + 0.5000 H2O + 0.1250 HS-
     -llnl_gamma 4.12
    log_k 3.711
    -analytic  1.892405999999910e3 2.579838899999910e-1 -1.1346946000000e5 -6.7560457759940004e2 7.7081907000000002e6
#    weight=122.590
# source:     SK93

#CuAc
1.0000 Cu+ + 1.0000 Ac- = AcCu
     -llnl_gamma 3.0
    log_k 0.33
    -analytic  1.99414540000000e3 2.716838699999910e-1 -1.2042400000000e5 -7.11162616311579910e2 7.8955775999999996e6
#    weight=122.590
# source:     SK93

#FeAc+
1.0000 Fe++ + 1.0000 Ac- = AcFe+
     -llnl_gamma 4.12
    log_k 1.29
    -analytic  1.78591100000000e3 2.504299099999910e-1 -1.0711283000000e5 -6.3814158721394995e2 7.0241205999999996e6
#    weight=114.897
# source:     SH98

#HAc
1.0000 H+ + 1.0000 Ac- = AcH
     -llnl_gamma 3.0
    log_k 4.76
    -analytic  1.15539200000000e3 1.759423199999910e-1 -6.4578430000000e4 -4.16509735991209993e2 3.9233672000000002e6
#    weight=60.058
# source:     GK94

#MnAc+
1.0000 Mn++ + 1.0000 Ac- = AcMn+
     -llnl_gamma 4.12
    log_k 1.22
    -analytic  -1.4260170000000e3 -1.51682409999910e-1 9.092647599999910e4 4.989947121830500123e2 -5.978244000000000e6
#    weight=113.988
# source:     SK93

#NH4Ac
1.0000 NH4+ + 1.0000 Ac- = AcNH4
     -llnl_gamma 3.0
    log_k 0.21
    -analytic  1.953794599999910e3 2.656323999999910e-1 -1.1847261000000e5 -6.9618397791973996e2 7.7556890999999996e6
#    weight=77.089
# source:     SK93

#NiAc+
1.0000 Ni++ + 1.0000 Ac- = AcNi+
     -llnl_gamma 4.12
    log_k 1.43
    -analytic  1.44277130000000e3 2.054359599999910e-1 -8.61681959999910e4 -5.1636780881309005e2 5.7015932000000002e6
#    weight=117.743
# source:     SK93

#PbAc+
1.0000 Pb++ + 1.0000 Ac- = AcPb+
     -llnl_gamma 4.12
    log_k 2.4
    -analytic  1.75696070000000e3 2.469484299999910e-1 -1.0526236000000e5 -6.2743544151386004e2 6.8818627000000002e6
#    weight=266.240
# source:     SK93

#ZnAc+
1.0000 Zn++ + 1.0000 Ac- = AcZn+
     -llnl_gamma 4.12
    log_k 1.605
    -analytic  1.69834860000000e3 2.401114899999910e-1 -1.0201671000000e5 -6.0651590332359000e2 6.6334265000000000e6
#    weight=124.420
# source:     SH98

#BaAc+
1.0000 Ba++ + 1.0000 Ac- = BaAc+
     -llnl_gamma 4.12
    log_k 0.99
    -analytic  1.822280799999910e3 2.554812799999910e-1 -1.0979302000000e5 -6.5060225670319005e2 7.1705654000000004e6
#    weight=196.390
# source:     SK93

#CaAc+
1.0000 Ca++ + 1.0000 Ac- = CaAc+
     -llnl_gamma 4.12
    log_k 0.93
    -analytic  -1.39943759999910e3 -1.48353119999910e-1 8.91342670000000e4 4.897034129192040268e2 -5.877047200000000e6
#    weight=99.130
# source:     SK93

#CaAc2
2.0000 Ac- + 1.0000 Ca++ = CaAc2
     -llnl_gamma 3.0
    log_k 1.9
    -analytic  -1.87558609999910e3 -2.17261319999910e-1 1.179856999999910e5 6.607118256315369535e2 -7.8538905999999910e6
#    weight=158.180
# source:     HC88

#UAc+2
0.6250 H+ + 0.3750 HS- + 1.0000 UO2++ + 1.0000 Ac- = UAc++ + 0.5000 H2O + 0.3750 SO4--
     -llnl_gamma 4.28
    log_k -10.504
    -analytic  1.25602060000000e3 1.768931899999910e-1 -8.1556110000000e4 -4.4786274775494002e2 5.5547385999999996e6
#    weight=297.081
# source:     SH98

#UAc2+
0.6250 H+ + 0.3750 HS- + 1.0000 UO2++ + 2.0000 Ac- = UAc2+ + 0.5000 H2O + 0.3750 SO4--
     -llnl_gamma 4.12
    log_k -8.158
    -analytic  3.089227499999910e3 4.390444999999910e-1 -1.93868119999910e5 -1.10213184819289910e3 1.3255325000000000e7
#    weight=356.131
# source:     SH98

#UAc3
0.6250 H+ + 0.3750 HS- + 1.0000 UO2++ + 3.0000 Ac- = UAc3 + 0.5000 H2O + 0.3750 SO4--
     -llnl_gamma 3.0
    log_k -6.59
    -analytic  5.22842330000000e3 7.397444099999910e-1 -3.26028159999910e5 -1.8645532322936001e3 2.2371852000000000e7
#    weight=415.181
# source:     SH98

#KAc
1.0000 K+ + 1.0000 Ac- = KAc
     -llnl_gamma 3.0
    log_k -0.26
    -analytic  1.993785399999910e3 2.694490899999910e-1 -1.20594089999910e5 -7.1048303134723994e2 7.8355325000000000e6
#    weight=98.152
# source:     SK93

#MgAc
1.0000 Mg++ + 1.0000 Ac- = MgAc+
     -llnl_gamma 4.12
    log_k 1.28
    -analytic  1.511676999999910e3 2.134676599999910e-1 -9.09501689999910e4 -5.4032604552474004e2 6.0458005999999996e6
#    weight=83.362
# source:     SK93

#NaAc
1.0000 Na+ + 1.0000 Ac- = NaAc
     -llnl_gamma 3.0
    log_k -0.1
    -analytic  1.98184850000000e3 2.689586899999910e-1 -1.1967924000000e5 -7.0663032294379002e2 7.8036909000000004e6
#    weight=82.040
# source:     SK93

#SrAc+
1.0000 Sr++ + 1.0000 Ac- = SrAc+
     -llnl_gamma 4.12
    log_k 1.15
    -analytic  1.57220720000000e3 2.229660799999910e-1 -9.4347773000000e4 -5.61986808882209970e2 6.1793404000000004e6
#    weight=146.670
# source:     SK93

#UO2Ac2
1.0000 UO2++ + 2.0000 Ac- = UAc2O2
     -llnl_gamma 3.0
    log_k 5.586
    -analytic  3.922385999999910e3 5.499184999999910e-1 -2.3756266000000e5 -1.4000423107735000e3 1.6032691000000000e7
#    weight=388.130
# source:     SH98

#UO2Ac3-
1.0000 UO2++ + 3.0000 Ac- = UAc3O2-
     -llnl_gamma 3.72
    log_k 7.264
    -analytic  3.86848430000000e3 5.529125499999910e-1 -2.3903519000000e5 -1.3798928030899999e3 1.6900832000000000e7
#    weight=447.180
# source:     SH98

#UO2Ac+
1.0000 UO2++ + 1.0000 Ac- = UAcO2+
     -llnl_gamma 4.12
    log_k 3.042
    -analytic  1.791765799999910e3 2.536525999999910e-1 -1.0771199000000e5 -6.4023555809751997e2 7.2132407000000002e6
#    weight=329.080
# source:     SH98

#AgOH
1.0000 Ag+ + 1.0000 H2O = Ag(OH) + 1.0000 H+
     -llnl_gamma 3.0
    log_k -11.993
    -analytic  2.151737599999910e2 2.526037099999910e-2 -1.4215537000000e4 -7.8220434326328004e1 5.8076235999999999e5
#    weight=124.877
# source:     SH98

#Ag+2
1.1250 H+ + 1.0000 Ag+ + 0.1250 SO4-- = Ag++ + 0.1250 HS- + 0.5000 H2O
     -llnl_gamma 4.28
    log_k -29.414
    -analytic  3.923512099999910e2 4.453524299999910e-2 -3.30347059999910e4 -1.3928325484337000e2 1.81399619999999910e6
#    weight=107.870
# source:     SH98

#Ag(bc)=-
1.0000 Ag+ + 2.0000 HCO3- = AgC2O6--- + 2.0000 H+
     -llnl_gamma 4.965
    log_k -18.506
    -analytic  -1.3969182000000e3 -1.99654609999910e-1 7.966615099999910e4 4.958051943380859825e2 -4.987341200000000e6
#    weight=227.889
# source:     SH98

#Ag(CO3)-
1.0000 Ag+ + 1.0000 HCO3- = AgCO3- + 1.0000 H+
     -llnl_gamma 3.72
    log_k -7.642
    -analytic  2.364929799999910e2 2.837582999999910e-2 -1.4556145000000e4 -8.6621434458798006e1 9.3931206000000006e5
#    weight=167.879
# source:     SH98

#AgCl2-
1.0000 Ag+ + 2.0000 Cl- = AgCl2-
     -llnl_gamma 3.72
    log_k 5.299
    -analytic  2.40010120000000e3 3.299813899999910e-1 -1.4229826000000e5 -8.5699822472742005e2 9.3054190999999996e6
#    weight=178.776
# source:     SH98

#AgCl3-2
1.0000 Ag+ + 3.0000 Cl- = AgCl3--
     -llnl_gamma 4.5467
    log_k 5.131
    -analytic  2.087108799999910e3 2.914738799999910e-1 -1.23907119999910e5 -7.46420835418709998e2 8.3278847000000002e6
#    weight=214.229
# source:     SH98

#AgCl4-3
1.0000 Ag+ + 4.0000 Cl- = AgCl4---
     -llnl_gamma 4.965
    log_k 3.805
    -analytic  2.02555230000000e3 2.841460199999910e-1 -1.21294149999910e5 -7.2514140317849000e2 8.4164694000000004e6
#    weight=249.682
# source:     SH98

#AgCl
1.0000 Ag+ + 1.0000 Cl- = AgCl
     -llnl_gamma 3.0
    log_k 3.297
    -analytic  2.147786099999910e3 2.911659199999910e-1 -1.2751638000000e5 -7.6634867323537003e2 8.2387335000000000e6
#    weight=143.323
# source:     SH98

#AgF
1.0000 Ag+ + 1.0000 F- = AgF
     -llnl_gamma 3.0
    log_k 0.4
    -analytic  1.97987680000000e3 2.716116999999910e-1 -1.17528919999910e5 -7.0747306908782002e2 7.4972562000000002e6
#    weight=126.868
# source:     SH98

#Ag(HS)2-
1.0000 Ag+ + 2.0000 HS- = AgH2S2-
     -llnl_gamma 3.72
    log_k 17.7
    -analytic  2.389048299999910e3 3.275568199999910e-1 -1.38384679999910e5 -8.5293061605723994e2 9.3930140000000000e6
#    weight=174.014
# source:     SH98

#AgHS
1.0000 Ag+ + 1.0000 HS- = AgHS
     -llnl_gamma 3.0
    log_k 13.85
    -analytic  1.69439630000000e3 2.208245899999910e-1 -9.4248464000000e4 -6.0434316100398996e2 5.7900842000000002e6
#    weight=140.942
# source:     SR89c

#AgNO3
1.0000 Ag+ + 1.0000 NH4+ + 1.0000 SO4-- = AgNO3 + 1.0000 H+ + 1.0000 H2O + 1.0000 HS-
     -llnl_gamma 3.0
    log_k -85.708
    -analytic  2.217129199999910e3 3.035482299999910e-1 -1.60549529999910e5 -7.8887495530353999e2 8.6381283000000007e6
#    weight=169.875
# source:     SH98

#AgO-
1.0000 Ag+ + 1.0000 H2O = AgO- + 2.0000 H+
     -llnl_gamma 3.72
    log_k -24.014
    -analytic  -1.7947471000000e3 -2.45333009999910e-1 1.026187599999910e5 6.385033463579079580e2 -7.1336080999999910e6
#    weight=123.869
# source:     SH98

#AgSO4-
1.0000 Ag+ + 1.0000 SO4-- = AgSO4-
     -llnl_gamma 3.72
    log_k 1.3
    -analytic  2.52960700000000e2 3.221016999999910e-2 -1.8198739000000e4 -8.7466059512268998e1 1.4404415000000000e6
#    weight=203.932
# source:     HH69

#AlOH+2
1.0000 Al+++ + 1.0000 H2O = Al(OH)++ + 1.0000 H+
     -llnl_gamma 4.28
    log_k -5
    -analytic  -5.5608198000000e2 -6.29375249999910e-2 3.25471490000000e4 1.966230577597409876e2 -2.2981118999999910e6
#    weight=43.989
# source:     SH98

#Al(OH)2+
1.0000 Al+++ + 2.0000 H2O = Al(OH)2+ + 2.0000 H+
     -llnl_gamma 4.12
    log_k -10.594
    -analytic  -1.13051269999910e3 -1.26267689999910e-1 6.73517890000000e4 3.984749454830779882e2 -4.8307385999999910e6
#    weight=60.996
# source:     PH95

#AlF+2
1.0000 Al+++ + 1.0000 F- = AlF++
     -llnl_gamma 4.28
    log_k 7
    -analytic  6.503008399999910e3 9.36154220000000e-1 -3.72660619999910e5 -2.3370020626374999e3 2.2895198000000000e7
#    weight=45.980
# source:     WO82

#AlF2+
1.0000 Al+++ + 2.0000 F- = AlF2+
     -llnl_gamma 4.12
    log_k 12.6
    -analytic  1.15770470000000e4 1.670730599999910e0 -6.6208878000000e5 -4.1618942337899998e3 4.0574319000000000e7
#    weight=64.978
# source:     WO82

#AlF3
1.0000 Al+++ + 3.0000 F- = AlF3
     -llnl_gamma 3.0
    log_k 16.7
    -analytic  1.47336360000000e4 2.128780199999910e0 -8.41719199999910e5 -5.29747163702739910e3 5.1539018000000000e7
#    weight=83.975
# source:     WO82

#AlF4-
1.0000 Al+++ + 4.0000 F- = AlF4-
     -llnl_gamma 3.72
    log_k 19.1
    -analytic  1.70063790000000e4 2.45536790000000e0 -9.7218491000000e5 -6.1140092970178002e3 5.9569734000000000e7
#    weight=102.974
# source:     WO82

#AlF5-2
1.0000 Al+++ + 5.0000 F- = AlF5--
     -llnl_gamma 4.5467
    log_k 20.97
    -analytic  1.75018280000000e4 2.527038999999910e0 -1.0001619000000e6 -6.2921227735256998e3 6.1313787000000000e7
#    weight=121.972
# source:     WO82

#HAlO2
1.0000 Al+++ + 2.0000 H2O = AlO(OH) + 3.0000 H+
     -llnl_gamma 3.0
    log_k -15.602
    -analytic  -9.9838688000000e2 -1.14057769999910e-1 6.10014170000000e4 3.511502594545360125e2 -5.041724500000000e6
#    weight=59.988
# source:     SH98

#AlO2-
1.0000 Al+++ + 2.0000 H2O = AlO2- + 4.0000 H+
     -llnl_gamma 3.72
    log_k -22.204
    -analytic  -2.86140309999910e3 -3.63952749999910e-1 1.682040299999910e5 1.016486527909289975e3 -1.170677800000000e7
#    weight=58.980
# source:     SH98

#AlSO4)2-
1.0000 Al+++ + 2.0000 SO4-- = AlS2O8-
     -llnl_gamma 3.72
    log_k 4.95
    -analytic  2.286957399999910e3 3.246970399999910e-1 -1.3582366000000e5 -8.17037850550010035e2 8.7515008000000007e6
#    weight=219.105
# source:     IZ69

#AlSO4+
1.0000 Al+++ + 1.0000 SO4-- = AlSO4+
     -llnl_gamma 4.12
    log_k 3.05
    -analytic  1.00548730000000e3 1.481539299999910e-1 -5.9761540000000e4 -3.59699665801419910e2 3.9012226000000000e6
#    weight=123.043
# source:     IZ69

#KAlO2
1.0000 Al+++ + 2.0000 H2O + 1.0000 K+ = KAlO2 + 4.0000 H+
     -llnl_gamma 3.0
    log_k -24.224
    -analytic  -9.98742049999910e2 -1.10262879999910e-1 5.65879270000000e4 3.522169780505669791e2 -4.796011500000000e6
#    weight=98.082
# source:     PH97A

#NaAlO2
1.0000 Al+++ + 2.0000 H2O + 1.0000 Na+ = NaAlO2 + 4.0000 H+
     -llnl_gamma 3.0
    log_k -23.627
    -analytic  -8.5664894000000e2 -8.64453149999910e-2 4.83857560000000e4 3.000955007045969864e2 -4.0951208999999910e6
#    weight=81.970
# source:     PH95

#AlMal+
1.0000 Al+++ + 1.0000 Mal-- = MalAl+
     -llnl_gamma 4.12
    log_k 3.56
    -analytic  -3.2995207000000e4 -4.1711000000000e0 2.00584380000000e6 1.171033460455749992e4 -1.299365900000000e8
#    weight=129.029
# source:     GK94

#AlOxal2-
1.0000 Al+++ + 2.0000 Oxal-- = Oxal2Al-
     -llnl_gamma 3.72
    log_k 11
    -analytic  1.09999990000000e1 -1.62226669999910e-10 6.664393199999910e-5 4.1683009465528367422e-7 -4.048480099999999e-3
#    weight=203.022
# source:     GK94

#AlOx3-3
1.0000 Al+++ + 3.0000 Oxal-- = Oxal3Al---
     -llnl_gamma 4.965
    log_k 15
    -analytic  4.906021499999910e3 6.776891999999910e-1 -2.9145378000000e5 -1.7471041231627000e3 1.8450850000000000e7
#    weight=291.041
# source:     GK94

#AlOxal+
1.0000 Al+++ + 1.0000 Oxal-- = OxalAl+
     -llnl_gamma 4.12
    log_k 5.19
    -analytic  -1.79340579999910e3 -2.38650639999910e-1 1.01962990000000e5 6.4526576246581100802e2 -6.125124900000000e6
#    weight=115.001
# source:     GK94

#AlSuc2-
1.0000 Al+++ + 2.0000 Suc-- = Suc2Al-
     -llnl_gamma 3.72
    log_k 10
    -analytic  9.999891399999910e0 -1.49511529999910e-8 6.300897399999910e-3 3.8901767588572879172e-5 -3.878464899999999e-1
#    weight=259.121
# source:     GK94

#AlSuc+
1.0000 Al+++ + 1.0000 Suc-- = SucAl+
     -llnl_gamma 4.12
    log_k 5.3
    -analytic  5.29998850000000e0 -1.58770269999910e-9 6.687354599999910e-4 4.12993481321634756010e-6 -4.1151955999999910e-2
#    weight=143.052
# source:     GK94

#H2As3S6-
8.0000 H+ + 3.0000 H2AsO3- + 6.0000 HS- = As3H2S6- + 9.0000 H2O
     -llnl_gamma 3.72
    log_k 82.35
    -analytic  6.73502070000000e3 9.970425799999910e-1 -3.72870789999910e5 -2.41918063383009985e3 2.5493793000000000e7
#    weight=419.163
# source:     SR89

#H3As3S6
9.0000 H+ + 3.0000 H2AsO3- + 6.0000 HS- = As3H3S6 + 9.0000 H2O
     -llnl_gamma 3.0
    log_k 87.61
    -analytic  6.920647899999910e3 1.04222520000000e0 -3.8253344000000e5 -2.4886560733248998e3 2.6425705000000000e7
#    weight=420.171
# source:     SR89

#HAs3S6=
7.0000 H+ + 3.0000 H2AsO3- + 6.0000 HS- = As3HS6-- + 9.0000 H2O
     -llnl_gamma 4.5467
    log_k 75.8
    -analytic  4.749757899999910e3 7.210219999999910e-1 -2.58160029999910e5 -1.7092197827310999e3 1.8339124000000000e7
#    weight=418.155
# source:     SR89

#AsH3(aq)
0.2500 H+ + 1.0000 H2AsO3- + 0.7500 HS- = AsH3 + 0.7500 SO4--
     -llnl_gamma 3.0
    log_k -20.98
    -analytic  -1.03361779999910e3 -1.39007859999910e-1 5.535940699999910e4 3.678550307613380140e2 -3.718248200000000e6
#    weight=77.945
# source:     SR89b

#H3AsO4
1.2500 H+ + 1.0000 H2AsO3- + 0.2500 SO4-- = AsO(OH)3 + 0.2500 HS-
     -llnl_gamma 3.0
    log_k -1.779
    -analytic  3.156211999999910e3 4.219362899999910e-1 -1.9135754000000e5 -1.1232905098450000e3 1.2227161000000000e7
#    weight=141.942
# source:     SH98

#HAsO2
1.0000 H+ + 1.0000 H2AsO3- = AsO(OH) + 1.0000 H2O
     -llnl_gamma 3.0
    log_k 9.234
    -analytic  2.169885999999910e3 2.919719599999910e-1 -1.28442759999910e5 -7.7232254605234004e2 8.3708714000000004e6
#    weight=107.928
# source:     SH98

#AsO+
2.0000 H+ + 1.0000 H2AsO3- = AsO+ + 2.0000 H2O
     -llnl_gamma 4.12
    log_k 8.94
    -analytic  3.233957599999910e2 5.108444399999910e-2 -2.14192959999910e4 -1.1242757169287999e2 1.80897869999999910e6
#    weight=90.920
# source:     SR89b

#HAsO3-2
1.0000 H2AsO3- = AsO2(OH)-- + 1.0000 H+
     -llnl_gamma 4.5467
    log_k -12.12
    -analytic  9.925135199999910e1 -9.33443589999910e-3 -9.7627093000000e3 -3.2759734679680000e1 4.6387415000000002e5
#    weight=123.927
# source:     SR89b

#H2AsO4-
0.2500 H+ + 1.0000 H2AsO3- + 0.2500 SO4-- = AsO2(OH)2- + 0.2500 HS-
     -llnl_gamma 3.72
    log_k -4.044
    -analytic  4.83820100000000e2 6.585229199999910e-2 -3.05332659999910e4 -1.7227836207383999e2 1.88494919999999910e6
#    weight=140.934
# source:     SH98

#AsO2-
1.0000 H2AsO3- = AsO2- + 1.0000 H2O
     -llnl_gamma 3.72
    log_k 0.006
    -analytic  -3.73030419999910e1 -5.13162099999910e-3 2.246644299999910e3 1.330512921710860037e1 -1.4387954999999910e5
#    weight=106.920
# source:     SH98

#HAsO4-2
1.0000 H2AsO3- + 0.2500 SO4-- = AsO3(OH)-- + 0.7500 H+ + 0.2500 HS-
     -llnl_gamma 4.5467
    log_k -10.803
    -analytic  -1.3974257000000e3 -1.93963559999910e-1 8.114436699999910e4 4.979925350471750107e2 -5.330227500000000e6
#    weight=139.926
# source:     SH98

#AsO3-3
1.0000 H2AsO3- = AsO3--- + 2.0000 H+
     -llnl_gamma 4.965
    log_k -25.52
    -analytic  1.410024999999910e2 -2.18327139999910e-2 -1.52149709999910e4 -4.6958796046925997e1 6.4140607999999996e5
#    weight=122.919
# source:     SR89b

#AsO4-3
1.0000 H2AsO3- + 0.2500 SO4-- = AsO4--- + 1.7500 H+ + 0.2500 HS-
     -llnl_gamma 4.965
    log_k -22.399
    -analytic  -2.7768697000000e3 -3.92506959999910e-1 1.61624230000000e5 9.897112625431719834e2 -1.062979900000000e7
#    weight=138.919
# source:     SH98

#Au+3
2.2500 H+ + 1.0000 Au+ + 0.2500 SO4-- = Au+++ + 1.0000 H2O + 0.2500 HS-
     -llnl_gamma 4.515
    log_k -38.93
    -analytic  1.130262899999910e3 1.348015999999910e-1 -8.1649478000000e4 -4.0131394079934000e2 5.1117040999999996e6
#    weight=196.967
# source:     SH98

#Au2H2S3=
2.0000 Au+ + 3.0000 HS- = Au2H2S3-- + 1.0000 H+
     -llnl_gamma 4.5467
    log_k 55.75
    -analytic  7.017821599999910e2 6.379746499999910e-2 -2.0051633000000e4 -2.46048118160910008e2 9.8043169999999995e5
#    weight=492.142
# source:     SR89c

#AuCl2-
2.0000 Cl- + 1.0000 Au+ = AuCl2-
     -llnl_gamma 3.72
    log_k 9.546
    -analytic  2.52621990000000e3 3.446119699999910e-1 -1.4773864000000e5 -9.0218311842903995e2 9.6451018000000007e6
#    weight=267.873
# source:     SH98

#AuCl3-2
3.0000 Cl- + 1.0000 Au+ = AuCl3--
     -llnl_gamma 4.5467
    log_k 9.29
    -analytic  2.21089440000000e3 3.049785299999910e-1 -1.28736199999910e5 -7.9053214882080999e2 8.4785479000000004e6
#    weight=303.326
# source:     SH98

#AuCl4-
2.2500 H+ + 1.0000 Au+ + 0.2500 SO4-- + 4.0000 Cl- = AuCl4- + 1.0000 H2O + 0.2500 HS-
     -llnl_gamma 3.72
    log_k -29.096
    -analytic  6.561944199999910e3 8.987422199999910e-1 -3.97809099999910e5 -2.3491797444189000e3 2.5617196000000000e7
#    weight=338.779
# source:     SH98

#AuCl
1.0000 Cl- + 1.0000 Au+ = AuCl
     -llnl_gamma 3.0
    log_k 7.92
    -analytic  2.15025840000000e3 2.903926099999910e-1 -1.26092039999910e5 -7.67198649496510029e2 8.2127040999999996e6
#    weight=232.420
# source:     SH98

#Au(HS)2-
1.0000 Au+ + 2.0000 HS- = AuH2S2-
     -llnl_gamma 3.72
    log_k 31
    -analytic  2.644043999999910e3 3.591772899999910e-1 -1.4913263000000e5 -9.4362255814084995e2 1.0223097000000000e7
#    weight=263.111
# source:     SH98

#BF4-
3.0000 H+ + 4.0000 F- + 1.0000 H3BO3 = BF4- + 3.0000 H2O
     -llnl_gamma 3.72
    log_k 18.005