#PLEASE NOTE: THIS DATABASE HAS BEEN CONVERTED FROM THE FORMAT FOR TOUGHREACT TO A SUITABLE FORMAT FOR PHREEQC. THE FOLLOWING NOTES ARE COPIED FROM THE TOUGHREACT DATABASE
#Conversion of EQ3/6 database data0.ymp.R5 using DBCONV2 V2.0    N.S. 3/12/08
#with following additions:
# Subset without actinides, organics etc
# O2(g)           switched with O2(aq)         
# add HFO surface complexes

#For the source of this database please cite: 
#Wolery T.J., Jove-Colon C.F., Jareck, R.L.,  2007.  Qualification of Thermodynamic Data for Geochemical Modeling 
#  of Mineral-Water Interactions in Dilute Systems. ANL-WIS-GS-000003 REV 01. Las Vegas, Nevada: 
#  Sandia National Laboratories. ACC: DOC.20070619.0007. 
#Wolery T.J and R. L. Jarek, 2003. EQ306, Version 8.0, Software?s User Manual. Software Identification Number
#  10813-UM-8.0-00, U.S. Department of Energy, Office of Civilian RadioactiveWaste Management, Office of Repository
#  Development.


# File format and data suitable for TOUGHREACT V2.3+ (YMP)
# May needs component switching to avoid overdefinitions

#!!!! Gases need default molecular diameter to be changed


LLNL_AQUEOUS_MODEL_PARAMETERS
 -temperatures 
 0.01 25 50 75 100 125 150 175 200 225 250 275 300

 #debye huckel a (adh) 
 -dh_a 
 0.4907 0.5092 0.5336 0.5639 0.5998 0.6416 0.6898 0.7454 0.8099 0.886 0.9785 1.096 1.2555

 #debye huckel b (bdh) 
 -dh_b 
 0.3245 0.3283 0.3325 0.3371 0.3422 0.3476 0.3533 0.3592 0.3655 0.3721 0.3792 0.3871 0.3965

#bdot and CCO2 values: taken from LLNL, since they were impossible to convert (different equations) 
 -bdot 
 0.0374 0.041 0.043 0.044625 0.046 0.0465 0.047 0.047 0.047 0.0405 0.034 0.017 0

 #cco2   (coefficients for the Drummond (1981) polynomial)
 -co2_coefs
        -1.0312              0.0012806
          255.9                 0.4445
-0.001606

SOLUTION_MASTER_SPECIES 
Ag Ag+ 0 107.868 107.868
Al Al+++ 0 26.982 26.9815
Alkalinity HCO3- 1.0 Ca0.5(CO3)0.5 50.05
As H2AsO4- 0 140.935 74.9216
As(3) H2AsO3- 0 124.936 74.9216
As(5) H2AsO4- 0 140.935 74.9216
Au Au+ 0 196.967 196.9665
B B(OH)3 0 61.833 10.811
Ba Ba++ 0 137.327 137.327
Br Br- 0 79.904 79.904
C HCO3- 1 61.017 12.011
C(4) HCO3- 1 61.017 12.011
Ca Ca++ 0 40.078 40.078
Cd Cd++ 0 112.411 112.399
Cl Cl- 0 35.453 35.453
Cr CrO4-- 0 115.994 51.9961
Cr(2) Cr++ 0 51.996 51.9961
Cr(3) Cr+++ 0 51.996 51.9961
Cr(6) CrO4-- 0 115.994 51.9961
Cu Cu++ 0 63.546 63.546
Cu(1) Cu+ 0 63.546 63.546
Cu(2) Cu++ 0 63.546 63.546
E e- 0 0 0
F F- 0 18.998 18.9984
Fe Fe++ 0 55.845 55.847
Fe(2) Fe++ 0 55.845 55.847
Fe(3) Fe+++ -2 55.845 55.847
H H+ -1 1.008 1.0079
H(1) H+ -1 1.008 1.0079
Hg Hg++ 0 200.590 401.18
Hg(2) Hg++ 0 200.590 401.18
Hg(1) Hg2++ 0 401.180 401.18
K K+ 0 39.098 39.102
Mg Mg++ 0 24.305 24.305
Mn Mn++ 0 54.938 54.938
Mn(2) Mn++ 0 54.938 54.938
Mn(3) Mn+++ 0 54.938 54.938
Mo MoO4-- 0 159.938 95.94
N NH3 1 17.031 14.0067
N(-3) NH3 1 17.031 14.0067
N(0) N2 0 28.013 14.0067
N(3) NO2- 0 46.006 14.0067
N(5) NO3- 0 62.005 14.0067
Na Na+ 0 22.990 22.9898
Ni Ni++ 0 58.693 58.69
O H2O 0 18.015 15.9994
O(-2) H2O 0 18.015 15.9994
O(0) O2 0 31.999 15.9994
P HPO4-- 2 95.979 30.9738
Pb Pb++ 0 207.200 207.19
S SO4-- 0 96.064 32.066
S(-2) HS- 1 33.074 32.066
S(6) SO4-- 0 96.064 32.066
Sb SbO2- 0 153.759 121.76
Si SiO2 0 60.084 28.0855
Sr Sr++ 0 87.620 87.62
Zn Zn++ 0 65.390 65.37
SOLUTION_SPECIES 
e- = e-
log_k 0
H2O = H2O
     -llnl_gamma 3.0
    log_k 0
Ag+ = Ag+
    -llnl_gamma 4.01
    log_k 0
Al+++ = Al+++
    -llnl_gamma 4.38
    log_k 0
Au+ = Au+
    -llnl_gamma 4.12
    log_k 0
B(OH)3 = B(OH)3
     -llnl_gamma 3.0
    log_k 0
Ba++ = Ba++
    -llnl_gamma 4.56
    log_k 0
Br- = Br-
    -llnl_gamma 3.87
    log_k 0
Ca++ = Ca++
    -llnl_gamma 4.3267
    log_k 0
Cd++ = Cd++
    -llnl_gamma 4.3133
    log_k 0
Cl- = Cl-
    -llnl_gamma 3.72
    log_k 0
CrO4-- = CrO4--
    -llnl_gamma 4.5467
    log_k 0
Cu++ = Cu++
    -llnl_gamma 4.1467
    log_k 0
F- = F-
    -llnl_gamma 3.24
    log_k 0
Fe++ = Fe++
    -llnl_gamma 4.16
    log_k 0
H+ = H+
    -llnl_gamma 4.89
    log_k 0
H2AsO4- = H2AsO4-
    -llnl_gamma 3.72
    log_k 0
HCO3- = HCO3-
    -llnl_gamma 4.01
    log_k 0
HPO4-- = HPO4--
    -llnl_gamma 4.5467
    log_k 0
Hg++ = Hg++
    -llnl_gamma 4.4
    log_k 0
K+ = K+
    -llnl_gamma 4.08
    log_k 0
Mg++ = Mg++
    -llnl_gamma 4.1067
    log_k 0
Mn++ = Mn++
    -llnl_gamma 4.2
    log_k 0
MoO4-- = MoO4--
    -llnl_gamma 4.5467
    log_k 0
NH3 = NH3
     -llnl_gamma 3.0
    log_k 0
Na+ = Na+
    -llnl_gamma 3.72
    log_k 0
Ni++ = Ni++
    -llnl_gamma 4.28
    log_k 0
Pb++ = Pb++
    -llnl_gamma 4.4667
    log_k 0
SO4-- = SO4--
    -llnl_gamma 4.6467
    log_k 0
SbO2- = SbO2-
    -llnl_gamma 3.72
    log_k 0
SiO2 = SiO2
     -llnl_gamma 3.0
    log_k 0
Sr++ = Sr++
    -llnl_gamma 4.4133
    log_k 0
Zn++ = Zn++
    -llnl_gamma 4.16
    log_k 0
O2 = O2
     -llnl_gamma 3.0
    log_k 0
HS- = HS-
    -llnl_gamma 3.75
    log_k 0
S2-- = S2--
    -llnl_gamma 4.5467
    log_k 0
Cr++ = Cr++
    -llnl_gamma 4.28
    log_k 0
Cr+++ = Cr+++
    -llnl_gamma 4.515
    log_k 0
Cu+ = Cu+
    -llnl_gamma 3.71
    log_k 0
Fe+++ = Fe+++
    -llnl_gamma 4.445
    log_k 0
H2AsO3- = H2AsO3-
    -llnl_gamma 3.72
    log_k 0
Hg2++ = Hg2++
    -llnl_gamma 4.28
    log_k 0
Mn+++ = Mn+++
    -llnl_gamma 4.515
    log_k 0
N2 = N2
     -llnl_gamma 3.0
    log_k 0
NO2- = NO2-
    -llnl_gamma 3.72
    log_k 0
NO3- = NO3-
    -llnl_gamma 4.72
    log_k 0

2H2O =  O2 + 4H+ + 4e-  
	-CO2_llnl_gamma
 	log_k      -85.9951
	-delta_H	559.543	kJ/mol	# Calculated enthalpy of reaction	O2
#	Enthalpy of formation:	-2.9 kcal/mol
        -analytic   38.0229    7.99407E-03   -2.7655e+004  -1.4506e+001  199838.45
#	Range:  0-300

#OH-
1.00000 H2O = (OH)- + 1.00000 H+
     -llnl_gamma 3.31
    log_k -13.995
    -analytic  -7.47383349999910e2 -1.17224199999910e-1 3.92802300000000e4 2.692965599918770180e2 -2.6455327999999910e6
#    weight=17.007
# source:     EQ3/6 database data0.ymp.R5 YM Project SN0612T0502404.14

#H2O2(aq)
1.00000 H2O + 0.50000 O2 = (OH)2
     -llnl_gamma 3.0
    log_k -16.625
    -analytic  -4.23001879999910e1 -9.95567949999910e-3 -1.6020840000000e3 1.547166791195120080e1 -3.7935059999999910e5
#    weight=34.015
# source:     EQ3/6 database data0.ymp.R5 YM Project SN0612T0502404.14

#AgOH(aq)
1.00000 Ag+ + 1.00000 H2O = Ag(OH) + 1.00000 H+
     -llnl_gamma 3.0
    log_k -11.992
    -analytic  8.09056460000000e1 8.630598399999910e-3 -5.85035499999910e3 -3.0765339088459000e1 2.4576226999999999e4
#    weight=124.876
# source:     EQ3/6 database data0.ymp.R5 YM Project SN0612T0502404.14

#Ag++
1.00000 Ag+ + 1.00000 H+ + 0.25000 O2 = Ag++ + 0.50000 H2O
     -llnl_gamma 4.28
    log_k -12.124
    -analytic  -3.0914429000000e2 -4.85976029999910e-2 1.547207699999910e4 1.095498906444749991e2 -1.0184975999999910e6
#    weight=107.868
# source:     EQ3/6 database data0.ymp.R5 YM Project SN0612T0502404.14

#Ag(CO3)2---
1.00000 Ag+ + 2.00000 HCO3- = AgC2O6--- + 2.00000 H+
     -llnl_gamma 4.965
    log_k -18.506
    -analytic  -6.7644668000000e2 -1.10595269999910e-1 3.470305299999910e4 2.4123624491121000710e2 -1.991020800000000e6
#    weight=227.886
# source:     EQ3/6 database data0.ymp.R5 YM Project SN0612T0502404.14

#AgCO3-
1.00000 Ag+ + 1.00000 HCO3- = AgCO3- + 1.00000 H+
     -llnl_gamma 3.72
    log_k -7.6416
    -analytic  3.88551760000000e1 3.686828399999910e-3 -2.3243575000000e3 -1.6687459551039001e1 1.3261767999999999e5
#    weight=167.877
# source:     EQ3/6 database data0.ymp.R5 YM Project SN0612T0502404.14

#AgCl2-
1.00000 Ag+ + 2.00000 Cl- = AgCl2-
     -llnl_gamma 3.72
    log_k 5.2989
    -analytic  9.395845799999910e2 1.482484799999910e-1 -5.1600055000000e4 -3.4048583659632999e2 3.2967051000000000e6
#    weight=178.774
# source:     EQ3/6 database data0.ymp.R5 YM Project SN0612T0502404.14

#AgCl3--
1.00000 Ag+ + 3.00000 Cl- = AgCl3--
     -llnl_gamma 4.5467
    log_k 5.131
    -analytic  8.84867190000000e2 1.416556999999910e-1 -4.93307699999910e4 -3.2116219710816000e2 3.3936428999999999e6
#    weight=214.226
# source:     EQ3/6 database data0.ymp.R5 YM Project SN0612T0502404.14

#AgCl4---
1.00000 Ag+ + 4.00000 Cl- = AgCl4---
     -llnl_gamma 4.965
    log_k 3.805
    -analytic  8.42215370000000e2 1.365195399999910e-1 -4.7956499000000e4 -3.0650506867285998e2 3.5697521000000000e6
#    weight=249.679
# source:     EQ3/6 database data0.ymp.R5 YM Project SN0612T0502404.14

#AgCl(aq)
1.00000 Ag+ + 1.00000 Cl- = AgCl
     -llnl_gamma 3.0
    log_k 3.2971
    -analytic  7.53829910000000e2 1.176331399999910e-1 -4.0983786000000e4 -2.7334328421525998e2 2.5085792999999998e6
#    weight=143.321
# source:     EQ3/6 database data0.ymp.R5 YM Project SN0612T0502404.14

#AgF(aq)
1.00000 Ag+ + 1.00000 F- = AgF
     -llnl_gamma 3.0
    log_k 0.4002
    -analytic  8.34687180000000e2 1.291892199999910e-1 -4.63867189999910e4 -3.0250361327240000e2 2.7821508999999999e6
#    weight=126.867
# source:     EQ3/6 database data0.ymp.R5 YM Project SN0612T0502404.14

#Ag(HS)2-
1.00000 Ag+ + 2.00000 HS- = AgH2S2-
     -llnl_gamma 3.72
    log_k 17.7
    -analytic  9.97103100000000e2 1.541328899999910e-1 -5.20302779999910e4 -3.6058213153830002e2 3.6788727999999998e6
#    weight=174.016
# source:     EQ3/6 database data0.ymp.R5 YM Project SN0612T0502404.14

#AgNO3(aq)
1.00000 Ag+ + 1.00000 NO3- = AgNO3
     -llnl_gamma 3.0
    log_k -0.2507
    -analytic  7.30787460000000e2 1.104676199999910e-1 -4.17314259999910e4 -2.6405884665499002e2 2.6122587999999998e6
#    weight=169.873
# source:     EQ3/6 database data0.ymp.R5 YM Project SN0612T0502404.14

#AgO-
1.00000 Ag+ + 1.00000 H2O = AgO- + 2.00000 H+
     -llnl_gamma 3.72
    log_k -24.014
    -analytic  -5.87645039999910e2 -9.49388049999910e-2 2.77314190000000e4 2.115362451703119859e2 -2.178194000000000e6
#    weight=123.868
# source:     EQ3/6 database data0.ymp.R5 YM Project SN0612T0502404.14

#AlOH++
1.00000 Al+++ + 1.00000 H2O = Al(OH)++ + 1.00000 H+
     -llnl_gamma 4.28
    log_k -5.0004
    -analytic  1.86193440000000e2 2.985578299999910e-2 -1.3382643000000e4 -6.60499550311809910e1 7.3136429000000004e5
#    weight=43.989
# source:     EQ3/6 database data0.ymp.R5 YM Project SN0612T0502404.14

#Al13O4(OH)24(7+)
13.00000 Al+++ + 28.00000 H2O = Al13O4(OH)24+++++++ + 32.00000 H+
     -llnl_gamma 5.1375
    log_k -98.73
    -analytic  -9.8730000000000e1 0 0 0 0
#    weight=822.934
# source:     EQ3/6 database data0.ymp.R5 YM Project SN0612T0502404.14

#Al2(OH)2++++
2.00000 Al+++ + 2.00000 H2O = Al2(OH)2++++ + 2.00000 H+
     -llnl_gamma 4.696
    log_k -7.6902
    -analytic  -7.69019999999910e0 0 0 0 0
#    weight=87.978
# source:     EQ3/6 database data0.ymp.R5 YM Project SN0612T0502404.14

#Al3(OH)4(5+)
3.00000 Al+++ + 4.00000 H2O = Al3(OH)4+++++ + 4.00000 H+
     -llnl_gamma 4.89
    log_k -13.88
    -analytic  -1.3880300000000e1 0 0 0 0
#    weight=148.974
# source:     EQ3/6 database data0.ymp.R5 YM Project SN0612T0502404.14

#AlF++
1.00000 Al+++ + 1.00000 F- = AlF++
     -llnl_gamma 4.28
    log_k 7
    -analytic  7.00000000000000e0 0 0 0 0
#    weight=45.980
# source:     EQ3/6 database data0.ymp.R5 YM Project SN0612T0502404.14

#AlF2+
1.00000 Al+++ + 2.00000 F- = AlF2+
     -llnl_gamma 4.12
    log_k 12.6
    -analytic  1.259999999999910e1 0 0 0 0
#    weight=64.978
# source:     EQ3/6 database data0.ymp.R5 YM Project SN0612T0502404.14

#AlF3(aq)
1.00000 Al+++ + 3.00000 F- = AlF3
     -llnl_gamma 3.0
    log_k 16.7
    -analytic  1.669999999999910e1 0 0 0 0
#    weight=83.977
# source:     EQ3/6 database data0.ymp.R5 YM Project SN0612T0502404.14

#AlF4-
1.00000 Al+++ + 4.00000 F- = AlF4-
     -llnl_gamma 3.72
    log_k 19.1
    -analytic  1.91000000000000e1 0 0 0 0
#    weight=102.975
# source:     EQ3/6 database data0.ymp.R5 YM Project SN0612T0502404.14

#HAlO2(aq)
1.00000 Al+++ + 2.00000 H2O = AlO(OH) + 3.00000 H+
     -llnl_gamma 3.0
    log_k -15.602
    -analytic  4.336358099999910e2 6.576593799999910e-2 -2.7309629000000e4 -1.55914202969499910e2 7.5992208999999997e5
#    weight=59.988
# source:     EQ3/6 database data0.ymp.R5 YM Project SN0612T0502404.14

#AlO+
1.00000 Al+++ + 1.00000 H2O = AlO+ + 2.00000 H+
     -llnl_gamma 4.12
    log_k -10.342
    -analytic  2.789989699999910e2 4.420946799999910e-2 -1.8417268000000e4 -1.00066864330279910e2 6.0961620999999996e5
#    weight=42.981
# source:     EQ3/6 database data0.ymp.R5 YM Project SN0612T0502404.14

#AlO2-
1.00000 Al+++ + 2.00000 H2O = AlO2- + 4.00000 H+
     -llnl_gamma 3.72
    log_k -22.204
    -analytic  -2.0546252000000e2 -3.21913219999910e-2 3.758843699999910e3 7.671694066659179605e1 -8.5136558999999910e5
#    weight=58.980
# source:     EQ3/6 database data0.ymp.R5 YM Project SN0612T0502404.14

#AlH2PO4++
1.00000 Al+++ + 1.00000 H+ + 1.00000 HPO4-- = AlPO2(OH)2++
     -llnl_gamma 4.28
    log_k 3.1
    -analytic  3.10000000000000e0 0 0 0 0
#    weight=123.969
# source:     EQ3/6 database data0.ymp.R5 YM Project SN0612T0502404.14

#AlHPO4+
1.00000 Al+++ + 1.00000 HPO4-- = AlPO3(OH)+
     -llnl_gamma 4.12
    log_k 7.4
    -analytic  7.40000000000000e0 0 0 0 0
#    weight=122.961
# source:     EQ3/6 database data0.ymp.R5 YM Project SN0612T0502404.14

#Al(SO4)2-
1.00000 Al+++ + 2.00000 SO4-- = AlS2O8-
     -llnl_gamma 3.72
    log_k 4.9
    -analytic  4.90000000000000e0 0 0 0 0
#    weight=219.109
# source:     EQ3/6 database data0.ymp.R5 YM Project SN0612T0502404.14

#AlSO4+
1.00000 Al+++ + 1.00000 SO4-- = AlSO4+
     -llnl_gamma 4.12
    log_k 3.01
    -analytic  3.009999999999910e0 0 0 0 0
#    weight=123.045
# source:     EQ3/6 database data0.ymp.R5 YM Project SN0612T0502404.14

#HAsS2(aq)
1.00000 H2AsO3- + 2.00000 HS- + 3.00000 H+ = AsHS2 + 3.00000 H2O
     -llnl_gamma 3.0
    log_k 30.48
    -analytic  3.048019999999910e1 0 0 0 0
#    weight=140.062
# source:     EQ3/6 database data0.ymp.R5 YM Project SN0612T0502404.14

#H2AsO3-
1.00000 H2AsO4- = H2AsO3- + 0.50000 O2
     -llnl_gamma 3.72
    log_k -30.535
    -analytic  1.23194580000000e2 2.044672099999910e-2 -1.74048019999910e4 -4.3533145798089002e1 5.5734430000000005e5
#    weight=124.936
# source:     EQ3/6 database data0.ymp.R5 YM Project SN0612T0502404.14

#H3AsO4(aq)
1.00000 H+ + 1.00000 H2AsO4- = AsO(OH)3
     -llnl_gamma 3.0
    log_k 2.265
    -analytic  8.02939520000000e2 1.230820099999910e-1 -4.4881228000000e4 -2.8972912446083000e2 2.6730986000000000e6
#    weight=141.943
# source:     EQ3/6 database data0.ymp.R5 YM Project SN0612T0502404.14

#HAsO2(aq)
1.00000 H+ + 1.00000 H2AsO4- = AsO(OH) + 1.00000 H2O + 0.50000 O2
     -llnl_gamma 3.0
    log_k -21.301
    -analytic  7.573783799999910e2 1.212054799999910e-1 -5.0533406000000e4 -2.7270316555940002e2 2.6182380000000000e6
#    weight=107.928
# source:     EQ3/6 database data0.ymp.R5 YM Project SN0612T0502404.14

#HAsO3F-
1.00000 F- + 1.00000 H+ + 1.00000 H2AsO4- = AsO2(OH)F- + 1.00000 H2O
     -llnl_gamma 3.72
    log_k 46.116
    -analytic  4.61158000000000e1 0 0 0 0
#    weight=142.926
# source:     EQ3/6 database data0.ymp.R5 YM Project SN0612T0502404.14

#HAsO4--
1.00000 H2AsO4- = AsO3(OH)-- + 1.00000 H+
     -llnl_gamma 4.5467
    log_k -6.7583
    -analytic  -8.0542217000000e2 -1.26179039999910e-1 4.477855399999910e4 2.898948415099749808e2 -2.7757218999999910e6
#    weight=139.927
# source:     EQ3/6 database data0.ymp.R5 YM Project SN0612T0502404.14

#AsO3F--
1.00000 F- + 1.00000 H2AsO4- = AsO3F-- + 1.00000 H2O
     -llnl_gamma 4.5467
    log_k 40.245
    -analytic  4.02451000000000e1 0 0 0 0
#    weight=141.918
# source:     EQ3/6 database data0.ymp.R5 YM Project SN0612T0502404.14

#AsO4---
1.00000 H2AsO4- = AsO4--- + 2.00000 H+
     -llnl_gamma 4.965
    log_k -18.355
    -analytic  -1.5968293000000e3 -2.51738799999910e-1 8.867248099999910e4 5.737250883503199929e2 -5.646141500000000e6
#    weight=138.919
# source:     EQ3/6 database data0.ymp.R5 YM Project SN0612T0502404.14

#Au+++
1.00000 Au+ + 2.00000 H+ + 0.50000 O2 = Au+++ + 1.00000 H2O
     -llnl_gamma 4.575
    log_k -4.3506
    -analytic  -5.4142452000000e2 -8.52634599999910e-2 3.19097900000000e4 1.915187677160699877e2 -1.6382823999999910e6
#    weight=196.967
# source:     EQ3/6 database data0.ymp.R5 YM Project SN0612T0502404.14

#AuCl2-
1.00000 Au+ + 2.00000 Cl- = AuCl2-
     -llnl_gamma 3.72
    log_k 9.5459
    -analytic  9.359139199999910e2 1.468164999999910e-1 -4.8949360000000e4 -3.3980332734891999e2 3.0979698999999999e6
#    weight=267.872
# source:     EQ3/6 database data0.ymp.R5 YM Project SN0612T0502404.14

#AuCl3--
1.00000 Au+ + 3.00000 Cl- = AuCl3--
     -llnl_gamma 4.5467
    log_k 9.2901
    -analytic  8.84087170000000e2 1.400195499999910e-1 -4.62923269999910e4 -3.2135745632405002e2 3.0129417000000002e6
#    weight=303.325
# source:     EQ3/6 database data0.ymp.R5 YM Project SN0612T0502404.14

#AuCl(aq)
1.00000 Au+ + 1.00000 Cl- = AuCl
     -llnl_gamma 3.0
    log_k 7.9201
    -analytic  7.33079420000000e2 1.140627899999910e-1 -3.8085184000000e4 -2.6601498479488998e2 2.3825737000000002e6
#    weight=232.419
# source:     EQ3/6 database data0.ymp.R5 YM Project SN0612T0502404.14

#Au(HS)2-
1.00000 Au+ + 2.00000 HS- = AuH2S2-
     -llnl_gamma 3.72
    log_k 31
    -analytic  1.033756399999910e3 1.587434899999910e-1 -4.9155788000000e4 -3.74119697049610010e2 3.6012815000000000e6
#    weight=263.114
# source:     EQ3/6 database data0.ymp.R5 YM Project SN0612T0502404.14

#BF2(OH)2-
1.00000 B(OH)3 + 1.00000 H+ + 2.00000 F- = B(OH)2F2- + 1.00000 H2O
     -llnl_gamma 3.72
    log_k 6.6174
    -analytic  6.617399999999910e0 0 0 0 0
#    weight=82.822
# source:     EQ3/6 database data0.ymp.R5 YM Project SN0612T0502404.14

#BF3OH-
1.00000 B(OH)3 + 2.00000 H+ + 3.00000 F- = B(OH)F3- + 2.00000 H2O
     -llnl_gamma 3.72
    log_k 13.19
    -analytic  1.255296399999910e3 2.089739499999910e-1 -6.15948689999910e4 -4.6363002154113002e2 4.3906857999999998e6
#    weight=84.814
# source:     EQ3/6 database data0.ymp.R5 YM Project SN0612T0502404.14

#B2O(OH)5-
2.00000 B(OH)3 = B2O(OH)5- + 1.00000 H+
     -llnl_gamma 3.72
    log_k -18.685
    -analytic  -1.86850999999910e1 0 0 0 0
#    weight=122.658
# source:     EQ3/6 database data0.ymp.R5 YM Project SN0612T0502404.14

#BF4-
1.00000 B(OH)3 + 3.00000 H+ + 4.00000 F- = BF4- + 3.00000 H2O
     -llnl_gamma 3.72
    log_k 18.005
    -analytic  2.26176490000000e3 3.601096699999910e-1 -1.25139809999910e5 -8.1604048581706002e2 7.8067102999999998e6
#    weight=86.805
# source:     EQ3/6 database data0.ymp.R5 YM Project SN0612T0502404.14

#BH4-
1.00000 B(OH)3 + 1.00000 H2O = BH4- + 1.00000 H+ + 2.00000 O2
     -llnl_gamma 3.72
    log_k -237.1
    -analytic  -2.9779158000000e2 -4.17953379999910e-2 -5.86413139999910e4 1.110744391423010029e2 -4.454055000000000e5
#    weight=14.843
# source:     EQ3/6 database data0.ymp.R5 YM Project SN0612T0502404.14

#BO2-
1.00000 B(OH)3 = BO2- + 1.00000 H+ + 1.00000 H2O
     -llnl_gamma 3.72
    log_k -9.2449
    -analytic  -8.57973769999910e2 -1.29376659999910e-1 4.717363799999910e4 3.079645622340530053e2 -2.929222200000000e6
#    weight=42.810
# source:     EQ3/6 database data0.ymp.R5 YM Project SN0612T0502404.14

#BaB(OH)4+
1.00000 B(OH)3 + 1.00000 Ba++ + 1.00000 H2O = BaB(OH)4+ + 1.00000 H+
     -llnl_gamma 4.12
    log_k -7.8012
    -analytic  -7.80119999999910e0 0 0 0 0
#    weight=216.167
# source:     EQ3/6 database data0.ymp.R5 YM Project SN0612T0502404.14

#CaB(OH)4+
1.00000 B(OH)3 + 1.00000 Ca++ + 1.00000 H2O = CaB(OH)4+ + 1.00000 H+
     -llnl_gamma 4.12
    log_k -7.4222
    -analytic  -7.4222000000000e0 0 0 0 0
#    weight=118.918
# source:     EQ3/6 database data0.ymp.R5 YM Project SN0612T0502404.14

#MgB(OH)4+
1.00000 B(OH)3 + 1.00000 H2O + 1.00000 Mg++ = MgB(OH)4+ + 1.00000 H+
     -llnl_gamma 4.12
    log_k -7.3467
    -analytic  -7.3467000000000e0 0 0 0 0
#    weight=103.145
# source:     EQ3/6 database data0.ymp.R5 YM Project SN0612T0502404.14

#NaB(OH)4(aq)
1.00000 B(OH)3 + 1.00000 H2O + 1.00000 Na+ = NaB(OH)4 + 1.00000 H+
     -llnl_gamma 3.0
    log_k -8.974
    -analytic  -8.9740000000000e0 0 0 0 0
#    weight=101.830
# source:     EQ3/6 database data0.ymp.R5 YM Project SN0612T0502404.14

#BaOH+
1.00000 Ba++ + 1.00000 H2O = Ba(OH)+ + 1.00000 H+
     -llnl_gamma 4.12
    log_k -13.5
    -analytic  1.784072799999910e2 2.655773499999910e-2 -1.2645950000000e4 -6.4977272739759002e1 2.9949803000000003e5
#    weight=154.334
# source:     EQ3/6 database data0.ymp.R5 YM Project SN0612T0502404.14

#BaHCO3+
1.00000 Ba++ + 1.00000 HCO3- = BaCO2(OH)+
     -llnl_gamma 4.12
    log_k 1.0174
    -analytic  9.891532399999910e2 1.543602299999910e-1 -5.6612603000000e4 -3.5683276315383000e2 3.4379842000000002e6
#    weight=198.344
# source:     EQ3/6 database data0.ymp.R5 YM Project SN0612T0502404.14

#BaCO3(aq)
1.00000 Ba++ + 1.00000 HCO3- = BaCO3 + 1.00000 H+
     -llnl_gamma 3.0
    log_k -7.6834
    -analytic  8.844731199999910e2 1.371593299999910e-1 -4.85107149999910e4 -3.2299176214549999e2 2.5663516000000000e6
#    weight=197.336
# source:     EQ3/6 database data0.ymp.R5 YM Project SN0612T0502404.14

#BaCl+
1.00000 Ba++ + 1.00000 Cl- = BaCl+
     -llnl_gamma 4.12
    log_k -0.4977
    -analytic  8.63293940000000e2 1.384846499999910e-1 -4.8566071000000e4 -3.13249547642810000e2 2.9264362999999998e6
#    weight=172.780
# source:     EQ3/6 database data0.ymp.R5 YM Project SN0612T0502404.14

#BaF+
1.00000 Ba++ + 1.00000 F- = BaF+
     -llnl_gamma 4.12
    log_k 0.3203
    -analytic  8.788013999999910e2 1.393856799999910e-1 -4.9459921000000e4 -3.1849039249549998e2 3.0160998999999999e6
#    weight=156.325
# source:     EQ3/6 database data0.ymp.R5 YM Project SN0612T0502404.14

#BaNO3+
1.00000 Ba++ + 1.00000 NO3- = BaNO3+
     -llnl_gamma 4.12
    log_k 0.9
    -analytic  9.00000000000000e-1 0 0 0 0
#    weight=199.332
# source:     EQ3/6 database data0.ymp.R5 YM Project SN0612T0502404.14

#Br2(aq)
2.00000 Br- + 2.00000 H+ + 0.50000 O2 = Br2 + 1.00000 H2O
     -llnl_gamma 3.0
    log_k 5.6835
    -analytic  5.683449999999910e0 0 0 0 0
#    weight=159.808
# source:     EQ3/6 database data0.ymp.R5 YM Project SN0612T0502404.14

#Br3-
2.00000 H+ + 3.00000 Br- + 0.50000 O2 = Br3- + 1.00000 H2O
     -llnl_gamma 3.72
    log_k 7.0696
    -analytic  1.41550710000000e3 2.253770499999910e-1 -7.7209369000000e4 -5.1409914079852001e2 4.9268025000000000e6
#    weight=239.712
# source:     EQ3/6 database data0.ymp.R5 YM Project SN0612T0502404.14

#CdBr+
1.00000 Br- + 1.00000 Cd++ = CdBr+
     -llnl_gamma 4.12
    log_k 2.1424
    -analytic  8.61393910000000e2 1.366247999999910e-1 -4.8480726000000e4 -3.1184250697011998e2 3.0444660000000000e6
#    weight=192.315
# source:     EQ3/6 database data0.ymp.R5 YM Project SN0612T0502404.14

#CdBr2(aq)
1.00000 Cd++ + 2.00000 Br- = CdBr2
     -llnl_gamma 3.0
    log_k 2.8614
    -analytic  2.86140000000000e0 0 0 0 0
#    weight=272.219
# source:     EQ3/6 database data0.ymp.R5 YM Project SN0612T0502404.14

#CdBr3-
1.00000 Cd++ + 3.00000 Br- = CdBr3-
     -llnl_gamma 3.72
    log_k 3.0968
    -analytic  3.096799999999910e0 0 0 0 0
#    weight=352.123
# source:     EQ3/6 database data0.ymp.R5 YM Project SN0612T0502404.14

#CrBr++
1.00000 Br- + 1.00000 Cr+++ = CrBr++
     -llnl_gamma 4.28
    log_k -4.7427
    -analytic  9.711480699999910e2 1.521571199999910e-1 -5.7592271000000e4 -3.5047620069441001e2 3.4789552000000002e6
#    weight=131.900
# source:     EQ3/6 database data0.ymp.R5 YM Project SN0612T0502404.14

#KBr(aq)
1.00000 Br- + 1.00000 K+ = KBr
     -llnl_gamma 3.0
    log_k -1.7372
    -analytic  7.04823330000000e2 1.095572399999910e-1 -3.95594309999910e4 -2.5559373794836000e2 2.3025946000000000e6
#    weight=119.002
# source:     EQ3/6 database data0.ymp.R5 YM Project SN0612T0502404.14

#NaBr(aq)
1.00000 Br- + 1.00000 Na+ = NaBr
     -llnl_gamma 3.0
    log_k -1.3568
    -analytic  8.327959399999910e2 1.273814099999910e-1 -4.69737309999910e4 -3.0154269846138999e2 2.8056346000000000e6
#    weight=102.894
# source:     EQ3/6 database data0.ymp.R5 YM Project SN0612T0502404.14

#NiBr+
1.00000 Br- + 1.00000 Ni++ = NiBr+
     -llnl_gamma 4.12
    log_k -0.37
    -analytic  -3.69999999999910e-1 0 0 0 0
#    weight=138.597
# source:     EQ3/6 database data0.ymp.R5 YM Project SN0612T0502404.14

#BrO3-
1.00000 Br- + 1.50000 O2 = O3Br-
     -llnl_gamma 3.72
    log_k -17.144
    -analytic  -3.06950769999910e2 -4.93145859999910e-2 1.602733699999910e4 1.082481241621500060e2 -1.5199583999999910e6
#    weight=127.902
# source:     EQ3/6 database data0.ymp.R5 YM Project SN0612T0502404.14

#BrO4-
1.00000 Br- + 2.00000 O2 = O4Br-
     -llnl_gamma 3.72
    log_k -33.104
    -analytic  -3.6709933000000e2 -5.98797169999910e-2 1.51610720000000e4 1.2976031551916901110e2 -1.785370600000000e6
#    weight=143.902
# source:     EQ3/6 database data0.ymp.R5 YM Project SN0612T0502404.14

#BrO-
1.00000 Br- + 0.50000 O2 = OBr-
     -llnl_gamma 3.72
    log_k -10.917
    -analytic  -1.6394996000000e2 -2.41219589999910e-2 8.24595370000000e3 5.681809930409630022e1 -7.133030699999999e5
#    weight=95.903
# source:     EQ3/6 database data0.ymp.R5 YM Project SN0612T0502404.14

#PbBr+
1.00000 Br- + 1.00000 Pb++ = PbBr+
     -llnl_gamma 4.12
    log_k 1.1831
    -analytic  1.18310000000000e0 0 0 0 0
#    weight=287.104
# source:     EQ3/6 database data0.ymp.R5 YM Project SN0612T0502404.14

#PbBr2(aq)
1.00000 Pb++ + 2.00000 Br- = PbBr2
     -llnl_gamma 3.0
    log_k 1.5062
    -analytic  1.506199999999910e0 0 0 0 0
#    weight=367.008
# source:     EQ3/6 database data0.ymp.R5 YM Project SN0612T0502404.14

#PbBr3-
1.00000 Pb++ + 3.00000 Br- = PbBr3-
     -llnl_gamma 3.72
    log_k 1.2336
    -analytic  1.23360000000000e0 0 0 0 0
#    weight=446.912
# source:     EQ3/6 database data0.ymp.R5 YM Project SN0612T0502404.14

#ZnBr+
1.00000 Br- + 1.00000 Zn++ = ZnBr+
     -llnl_gamma 4.12
    log_k -0.6365
    -analytic  -6.36499999999910e-1 0 0 0 0
#    weight=145.294
# source:     EQ3/6 database data0.ymp.R5 YM Project SN0612T0502404.14

#ZnBr2(aq)
1.00000 Zn++ + 2.00000 Br- = ZnBr2
     -llnl_gamma 3.0
    log_k -1.0492
    -analytic  -1.04919999999910e0 0 0 0 0
#    weight=225.198
# source:     EQ3/6 database data0.ymp.R5 YM Project SN0612T0502404.14

#ZnBr3-
1.00000 Zn++ + 3.00000 Br- = ZnBr3-
     -llnl_gamma 3.72
    log_k -1.8474
    -analytic  -1.84739999999910e0 0 0 0 0
#    weight=305.102
# source:     EQ3/6 database data0.ymp.R5 YM Project SN0612T0502404.14

#Formic_acid(aq)
1.00000 H+ + 1.00000 HCO3- = C(OH)2 + 0.50000 O2
     -llnl_gamma 3.0
    log_k -39.052
    -analytic  8.96894620000000e2 1.438120599999910e-1 -6.3517925000000e4 -3.2364042339205002e2 3.1144381000000000e6
#    weight=46.025
# source:     EQ3/6 database data0.ymp.R5 YM Project SN0612T0502404.14

#Acetic_acid(aq)
2.00000 H+ + 2.00000 HCO3- = C2H2(OH)2 + 2.00000 O2
     -llnl_gamma 3.0
    log_k -141.99
    -analytic  -1.41992199999910e2 0 0 0 0
#    weight=60.052
# source:     EQ3/6 database data0.ymp.R5 YM Project SN0612T0502404.14

#CN-
1.00000 HCO3- + 1.00000 NH3 = CN- + 2.00000 H2O + 0.50000 O2
     -llnl_gamma 3.72
    log_k -56.051
    -analytic  9.11799730000000e1 1.801081899999910e-2 -2.3801840000000e4 -3.1654367192864000e1 4.9404069000000000e5
#    weight=26.017
# source:     EQ3/6 database data0.ymp.R5 YM Project SN0612T0502404.14

#SCN-
1.00000 H+ + 1.00000 HCO3- + 1.00000 HS- + 1.00000 NH3 = CNS- + 3.00000 H2O
     -llnl_gamma 3.72
    log_k 3.004
    -analytic  7.029145499999910e2 1.143057499999910e-1 -3.98159839999910e4 -2.54005967371639910e2 2.4951866000000000e6
#    weight=58.083
# source:     EQ3/6 database data0.ymp.R5 YM Project SN0612T0502404.14

#CO2(aq)
1.00000 H+ + 1.00000 HCO3- = CO2 + 1.00000 H2O
     -CO2_llnl_gamma
    log_k 6.3447
    -analytic  6.713854099999910e2 1.086216299999910e-1 -3.8868294000000e4 -2.4122982069880001e2 2.6528340000000000e6
#    weight=44.010
# source:     EQ3/6 database data0.ymp.R5 YM Project SN0612T0502404.14

#CO3--
1.00000 HCO3- = CO3-- + 1.00000 H+
     -llnl_gamma 4.42
    log_k -10.329
    -analytic  -8.1809550000000e2 -1.28838099999910e-1 4.53385140000000e4 2.937471584739579952e2 -2.910427700000000e6
#    weight=60.009
# source:     EQ3/6 database data0.ymp.R5 YM Project SN0612T0502404.14

#CaOH+
1.00000 Ca++ + 1.00000 H2O = Ca(OH)+ + 1.00000 H+
     -llnl_gamma 4.12
    log_k -12.833
    -analytic  1.568399799999910e2 2.414763599999910e-2 -1.18877399999910e4 -5.7117734702248000e1 3.8509485999999999e5
#    weight=57.085
# source:     EQ3/6 database data0.ymp.R5 YM Project SN0612T0502404.14

#CaHCO3+
1.00000 Ca++ + 1.00000 HCO3- = CaCO2(OH)+
     -llnl_gamma 4.12
    log_k 1.0467
    -analytic  8.982359199999910e2 1.417671799999910e-1 -5.1475775000000e4 -3.2476963414750003e2 3.2722502000000002e6
#    weight=101.095
# source:     EQ3/6 database data0.ymp.R5 YM Project SN0612T0502404.14

#CaCO3(aq)
1.00000 Ca++ + 1.00000 HCO3- = CaCO3 + 1.00000 H+
     -llnl_gamma 3.0
    log_k -7.0017
    -analytic  9.102698199999910e2 1.419313799999910e-1 -4.96317679999910e4 -3.32450413293899910e2 2.6220987000000002e6
#    weight=100.087